AMOSTRA/RIM/Linhas.dss
! ==========================================================
! LINHAS — geradas de SSDMT
! Barras = PAC_1 / PAC_2 da BDGD (preservados)
! ==========================================================
New Line.25430_12860755 Bus1=25430-10828961.2 Bus2=25430-10834969.2 LineCode=CND_M10_89_1F Length=111.73 Units=m
New Line.25430_12860756 Bus1=25430-10833884.2 Bus2=25430-10828961.2 LineCode=CND_M10_89_1F Length=103.62 Units=m
New Line.25430_12860757 Bus1=25430-10823721.2 Bus2=25430-10833884.2 LineCode=CND_M10_89_1F Length=103.78 Units=m
New Line.25430_12860764 Bus1=25430-10838931.2 Bus2=25430-10838932.2 LineCode=CND_M10_89_1F Length=100.08 Units=m
New Line.25430_12860765 Bus1=25430-10833883.2 Bus2=25430-10838931.2 LineCode=CND_M10_89_1F Length=103.88 Units=m
New Line.25430_12860766 Bus1=25430-10841468.2 Bus2=25430-10833883.2 LineCode=CND_M10_89_1F Length=149.35 Units=m
New Line.25430_12860767 Bus1=25430-10837599.2 Bus2=25430-10841468.2 LineCode=CND_M10_89_1F Length=133.97 Units=m
New Line.25430_12860768 Bus1=25430-10837599c.2 Bus2=25430-10833610.2 LineCode=CND_M10_89_1F Length=23.62 Units=m
New Line.25430_12860769 Bus1=25430-10841467.2 Bus2=25430-10837599.2 LineCode=CND_M10_89_1F Length=112.56 Units=m
New Line.25430_12860772 Bus1=25430-10832419c.2 Bus2=25430-10828436.2 LineCode=CND_M10_89_1F Length=58.14 Units=m
New Line.25430_12860774 Bus1=25430-10833252.1 Bus2=25430-10840759.1 LineCode=CND_M10_89_1F Length=100.73 Units=m
New Line.25430_12860775 Bus1=25430-10843196.1 Bus2=25430-10833252.1 LineCode=CND_M10_89_1F Length=93.15 Units=m
New Line.25430_12860776 Bus1=25430-10833253.1 Bus2=25430-10843196.1 LineCode=CND_M10_89_1F Length=120.15 Units=m
New Line.25430_12860778 Bus1=25430-10830673.1 Bus2=25430-10825578.1 LineCode=CND_M10_89_1F Length=48.32 Units=m
New Line.25430_12860781 Bus1=25430-10843174.1 Bus2=25430-10825579.1 LineCode=CND_M10_89_1F Length=118.52 Units=m
New Line.25430_12860782 Bus1=25430-10825579.1 Bus2=25430-10835697.1 LineCode=CND_M10_89_1F Length=108.79 Units=m
New Line.25430_12860852 Bus1=25430-10833011.1 Bus2=25430-10840410.1 LineCode=CND_M10_89_1F Length=139.78 Units=m
New Line.25430_12860857 Bus1=25430-10830424.1 Bus2=25430-10830423.1 LineCode=CND_M10_89_1F Length=155.89 Units=m
New Line.25430_12860858 Bus1=25430-10832901.1 Bus2=25430-10830424.1 LineCode=CND_M10_89_1F Length=135.33 Units=m
New Line.25430_12860859 Bus1=25430-10832901.1 Bus2=25430-10837887.1 LineCode=CND_M10_89_1F Length=26.23 Units=m
New Line.25430_12860726 Bus1=25430-10824948.2 Bus2=25430-10839958.2 LineCode=CND_M10_89_1F Length=119.18 Units=m
New Line.25430_12860729 Bus1=25430-10839754.2 Bus2=25430-10837306.2 LineCode=CND_M10_89_1F Length=55.34 Units=m
New Line.25430_12860730 Bus1=25430-10837306.2 Bus2=25430-10839959.2 LineCode=CND_M10_89_1F Length=123.09 Units=m
New Line.25430_12860731 Bus1=25430-10839959.2 Bus2=25430-10840004.2 LineCode=CND_M10_89_1F Length=133.64 Units=m
New Line.25430_12860735 Bus1=25430-10832923c.2 Bus2=25430-10827952.2 LineCode=CND_M10_89_1F Length=123.12 Units=m
New Line.25430_12860736 Bus1=25430-10827952.2 Bus2=25430-10843072.2 LineCode=CND_M10_89_1F Length=107.44 Units=m
New Line.25430_12860737 Bus1=25430-10843072.2 Bus2=25430-10836071.2 LineCode=CND_M10_89_1F Length=80.85 Units=m
New Line.25430_12860742 Bus1=25430-10829898.2 Bus2=25430-10834967.2 LineCode=CND_M10_89_1F Length=128.60 Units=m
New Line.25430_12860746 Bus1=25430-10834962.2 Bus2=25430-10834961.2 LineCode=CND_M10_89_1F Length=136.71 Units=m
New Line.25430_12860749 Bus1=25430-10839955.2 Bus2=25430-10834963.2 LineCode=CND_M10_89_1F Length=131.90 Units=m
New Line.25430_12860750 Bus1=25430-10842539.2 Bus2=25430-10834769.2 LineCode=CND_M10_89_1F Length=120.01 Units=m
New Line.25430_12860913 Bus1=25430-10837906.1 Bus2=25430-10837905.1 LineCode=CND_M10_89_1F Length=75.70 Units=m
New Line.25430_12860919 Bus1=25430-10837904.1 Bus2=25430-10837903.1 LineCode=CND_M10_89_1F Length=92.71 Units=m
New Line.25430_12860922 Bus1=25430-10835571.1 Bus2=25430-10831049.1 LineCode=CND_M10_89_1F Length=99.31 Units=m
New Line.25430_12860923 Bus1=25430-10842960.1 Bus2=25430-10835571.1 LineCode=CND_M10_89_1F Length=147.55 Units=m
New Line.25430_12860924 Bus1=25430-10840424.1 Bus2=25430-10842960.1 LineCode=CND_M10_89_1F Length=123.36 Units=m
New Line.25430_12860926 Bus1=25430-10840420c.1 Bus2=25430-10840424.1 LineCode=CND_M10_89_1F Length=109.37 Units=m
New Line.25430_12860793 Bus1=25430-10835751.1 Bus2=25430-10840758.1 LineCode=CND_M10_89_1F Length=116.10 Units=m
New Line.25430_12860795 Bus1=25430-10834769.2 Bus2=25430-10839955.2 LineCode=CND_M10_89_1F Length=147.09 Units=m
New Line.25430_12860800 Bus1=25430-10837588.2 Bus2=25430-10834968.2 LineCode=CND_M10_89_1F Length=128.60 Units=m
New Line.25430_12860801 Bus1=25430-10834968c.2 Bus2=25430-10829657.2 LineCode=CND_M10_89_1F Length=113.68 Units=m
New Line.25430_12860802 Bus1=25430-10829657.2 Bus2=25430-10832305.2 LineCode=CND_M10_89_1F Length=107.34 Units=m
New Line.25430_12860805 Bus1=25430-10829901.2 Bus2=25430-10837588.2 LineCode=CND_M10_89_1F Length=136.16 Units=m
New Line.25430_12860806 Bus1=25430-10834964.2 Bus2=25430-10829901.2 LineCode=CND_M10_89_1F Length=148.91 Units=m
New Line.25430_12860809 Bus1=25430-10832419.2 Bus2=25430-11327476.2 LineCode=CND_M10_89_1F Length=11.22 Units=m
New Line.25430_12860813 Bus1=25430-10838025.2 Bus2=25430-10825270.2 LineCode=CND_M10_89_1F Length=130.17 Units=m
New Line.25430_12860817 Bus1=25430-10842537c.2 Bus2=25430-10825882.2 LineCode=CND_M10_89_1F Length=151.37 Units=m
New Line.25430_12860821 Bus1=25430-10832408.2 Bus2=25430-10829896.2 LineCode=CND_M10_89_1F Length=131.28 Units=m
New Line.25430_12860824 Bus1=25430-10829897.2 Bus2=25430-10842538.2 LineCode=CND_M10_89_1F Length=135.27 Units=m
New Line.25430_12860825 Bus1=25430-10826800.1 Bus2=25430-10842865.1 LineCode=CND_M10_89_1F Length=101.90 Units=m
New Line.25430_12860826 Bus1=25430-10833014.1 Bus2=25430-10826800.1 LineCode=CND_M10_89_1F Length=92.26 Units=m
New Line.25430_12860827 Bus1=25430-10833014c.1 Bus2=25430-10825232.1 LineCode=CND_M10_89_1F Length=82.46 Units=m
New Line.25430_12860829 Bus1=25430-10835407.1 Bus2=25430-10833014.1 LineCode=CND_M10_89_1F Length=156.41 Units=m
New Line.25430_12860834 Bus1=25430-10826797.1 Bus2=25430-10835401.1 LineCode=CND_M10_89_1F Length=162.24 Units=m
New Line.25430_12860835 Bus1=25430-10835402.1 Bus2=25430-10826797.1 LineCode=CND_M10_89_1F Length=204.83 Units=m
New Line.25430_12860836 Bus1=25430-10840407.1 Bus2=25430-10835402.1 LineCode=CND_M10_89_1F Length=101.92 Units=m
New Line.25430_12860837 Bus1=25430-10842863.1 Bus2=25430-10840407.1 LineCode=CND_M10_89_1F Length=79.20 Units=m
New Line.25430_12860838 Bus1=25430-10837993.1 Bus2=25430-10842863.1 LineCode=CND_M10_89_1F Length=69.81 Units=m
New Line.25430_12860840 Bus1=25430-10826798.1 Bus2=25430-10837994.1 LineCode=CND_M10_89_1F Length=152.33 Units=m
New Line.25430_12860846 Bus1=25430-10833013.1 Bus2=25430-10835404.1 LineCode=CND_M10_89_1F Length=144.99 Units=m
New Line.25430_12860973 Bus1=25430-10837991.1 Bus2=25430-10842945.1 LineCode=CND_M10_89_1F Length=139.71 Units=m
New Line.25430_12860974 Bus1=25430-10842945.1 Bus2=25430-10838728.1 LineCode=CND_M10_89_1F Length=43.25 Units=m
New Line.25430_12860976 Bus1=25430-10837911.1 Bus2=25430-10840438.1 LineCode=CND_M10_89_1F Length=125.40 Units=m
New Line.25430_12860979 Bus1=25430-10825359.1 Bus2=25430-10842969.1 LineCode=CND_M10_89_1F Length=113.32 Units=m
New Line.25430_12860988 Bus1=25430-10827796.1 Bus2=25430-10827794.1 LineCode=CND_M10_89_1F Length=130.32 Units=m
New Line.25430_12860989 Bus1=25430-10838007.1 Bus2=25430-10827796.1 LineCode=CND_M10_89_1F Length=80.57 Units=m
New Line.25430_12860990 Bus1=25430-10825360.1 Bus2=25430-10838007.1 LineCode=CND_M10_89_1F Length=90.13 Units=m
New Line.25430_12860991 Bus1=25430-10826793.1 Bus2=25430-10825360.1 LineCode=CND_M10_89_1F Length=113.55 Units=m
New Line.25430_12860992 Bus1=25430-10832902.1 Bus2=25430-10826793.1 LineCode=CND_M10_89_1F Length=88.92 Units=m
New Line.25430_12860863 Bus1=25430-10842970.1 Bus2=25430-10830427.1 LineCode=CND_M10_89_1F Length=124.86 Units=m
New Line.25430_12860864 Bus1=25430-10832903.1 Bus2=25430-10842970.1 LineCode=CND_M10_89_1F Length=120.39 Units=m
New Line.25430_12860866 Bus1=25430-10835586.1 Bus2=25430-10840441.1 LineCode=CND_M10_89_1F Length=74.27 Units=m
New Line.25430_12860867 Bus1=25430-10827935.1 Bus2=25430-10835586.1 LineCode=CND_M10_89_1F Length=135.28 Units=m
New Line.25430_12860869 Bus1=25430-10835587.1 Bus2=25430-10832904.1 LineCode=CND_M10_89_1F Length=118.29 Units=m
New Line.25430_12860870 Bus1=25430-10832904.1 Bus2=25430-10827936.1 LineCode=CND_M10_89_1F Length=134.88 Units=m
New Line.25430_12860871 Bus1=25430-10840432.1 Bus2=25430-10830419.1 LineCode=CND_M10_89_1F Length=67.33 Units=m
New Line.25430_12860874 Bus1=25430-10832899.1 Bus2=25430-10840432.1 LineCode=CND_M10_89_1F Length=126.98 Units=m
New Line.25430_12860876 Bus1=25430-10842966.1 Bus2=25430-10840434.1 LineCode=CND_M10_89_1F Length=160.36 Units=m
New Line.25430_12860877 Bus1=25430-10842967.1 Bus2=25430-10842966.1 LineCode=CND_M10_89_1F Length=102.22 Units=m
New Line.25430_12860878 Bus1=25430-10835580.1 Bus2=25430-10842967.1 LineCode=CND_M10_89_1F Length=135.54 Units=m
New Line.25430_12860883 Bus1=25430-10832878.1 Bus2=25430-10842944.1 LineCode=CND_M10_89_1F Length=143.81 Units=m
New Line.25430_12860890 Bus1=25430-10827782.1 Bus2=25430-10830343.1 LineCode=CND_M10_89_1F Length=110.02 Units=m
New Line.25430_12860893 Bus1=25430-10830414.1 Bus2=25430-10832896.1 LineCode=CND_M10_89_1F Length=103.13 Units=m
New Line.25430_12860896 Bus1=25430-10830415.1 Bus2=25430-10835574.1 LineCode=CND_M10_89_1F Length=129.63 Units=m
New Line.25430_12860897 Bus1=25430-10842968.1 Bus2=25430-10835575.1 LineCode=CND_M10_89_1F Length=62.76 Units=m
New Line.25430_12860898 Bus1=25430-10830420.1 Bus2=25430-10842968.1 LineCode=CND_M10_89_1F Length=116.19 Units=m
New Line.25430_12860899 Bus1=25430-10835581.1 Bus2=25430-10830420.1 LineCode=CND_M10_89_1F Length=139.69 Units=m
New Line.25430_12860902 Bus1=25430-10835582.1 Bus2=25430-10832900.1 LineCode=CND_M10_89_1F Length=130.22 Units=m
New Line.25430_12860904 Bus1=25430-10827790.1 Bus2=25430-10825357.1 LineCode=CND_M10_89_1F Length=126.90 Units=m
New Line.25430_12860905 Bus1=25430-10840430.1 Bus2=25430-10837907.1 LineCode=CND_M10_89_1F Length=134.72 Units=m
New Line.25430_12860906 Bus1=25430-10837907.1 Bus2=25430-10840429.1 LineCode=CND_M10_89_1F Length=105.55 Units=m
New Line.25430_12860931 Bus1=25430-10825231.1 Bus2=25430-10842862.1 LineCode=CND_M10_89_1F Length=109.26 Units=m
New Line.25430_12860932 Bus1=25430-10826792.1 Bus2=25430-10825231.1 LineCode=CND_M10_89_1F Length=60.01 Units=m
New Line.25430_12860934 Bus1=25430-10835571c.1 Bus2=25430-10830318.1 LineCode=CND_M10_89_1F Length=113.47 Units=m
New Line.25430_12860937 Bus1=25430-10827784.1 Bus2=25430-10837902.1 LineCode=CND_M10_89_1F Length=120.91 Units=m
New Line.25430_12860938 Bus1=25430-10837902.1 Bus2=25430-10830416.1 LineCode=CND_M10_89_1F Length=127.82 Units=m
New Line.25430_12860939 Bus1=25430-10830416.1 Bus2=25430-10825356.1 LineCode=CND_M10_89_1F Length=148.51 Units=m
New Line.25430_12860942 Bus1=25430-10842962.1 Bus2=25430-10840423.1 LineCode=CND_M10_89_1F Length=130.94 Units=m
New Line.25430_12860943 Bus1=25430-10840423.1 Bus2=25430-10835576.1 LineCode=CND_M10_89_1F Length=104.89 Units=m
New Line.25430_12860944 Bus1=25430-10835576.1 Bus2=25430-10827780.1 LineCode=CND_M10_89_1F Length=68.95 Units=m
New Line.25430_12860945 Bus1=25430-10827780.1 Bus2=25430-10825352.1 LineCode=CND_M10_89_1F Length=78.90 Units=m
New Line.25430_12860946 Bus1=25430-10825352.1 Bus2=25430-10832892.1 LineCode=CND_M10_89_1F Length=49.30 Units=m
New Line.25430_12860947 Bus1=25430-10832892.1 Bus2=25430-10827779.1 LineCode=CND_M10_89_1F Length=126.09 Units=m
New Line.25430_12860949 Bus1=25430-10832891.1 Bus2=25430-10843685.1 LineCode=CND_M10_89_1F Length=44.10 Units=m
New Line.25430_12860955 Bus1=25430-10835427.1 Bus2=25430-10830354.1 LineCode=CND_M10_89_1F Length=143.46 Units=m
New Line.25430_12860956 Bus1=25430-10830354.1 Bus2=25430-10837895.1 LineCode=CND_M10_89_1F Length=126.87 Units=m
New Line.25430_12860960 Bus1=25430-10825349c.1 Bus2=25430-10842956.1 LineCode=CND_M10_89_1F Length=130.14 Units=m
New Line.25430_12860967 Bus1=25430-10827776.1 Bus2=25430-10838730.1 LineCode=CND_M10_89_1F Length=91.86 Units=m
New Line.25430_12861028 Bus1=25430-10827789.1 Bus2=25430-10827788.1 LineCode=CND_M10_89_1F Length=131.19 Units=m
New Line.25430_12861029 Bus1=25430-10827788.1 Bus2=25430-10827928.1 LineCode=CND_M10_89_1F Length=136.50 Units=m
New Line.25430_12861034 Bus1=25430-10842965.1 Bus2=25430-10827787.1 LineCode=CND_M10_89_1F Length=132.42 Units=m
New Line.25430_12861036 Bus1=25430-10827786.1 Bus2=25430-10840430.1 LineCode=CND_M10_89_1F Length=129.44 Units=m
New Line.25430_12861046 Bus1=25430-10832865.1 Bus2=25430-10830337.1 LineCode=CND_M10_89_1F Length=117.81 Units=m
New Line.25430_12861047 Bus1=25430-10830337.1 Bus2=25430-10843681.1 LineCode=CND_M10_89_1F Length=128.47 Units=m
New Line.25430_12861048 Bus1=25430-10830357.1 Bus2=25430-10835431.1 LineCode=CND_M10_89_1F Length=124.38 Units=m
New Line.25430_12861049 Bus1=25430-10835429.1 Bus2=25430-10830357.1 LineCode=CND_M10_89_1F Length=141.37 Units=m
New Line.25430_12861052 Bus1=25430-10832887.1 Bus2=25430-10832889.1 LineCode=CND_M10_89_1F Length=135.35 Units=m
New Line.25430_12861054 Bus1=25430-10835432.1 Bus2=25430-10825350.1 LineCode=CND_M10_89_1F Length=116.30 Units=m
New Line.25430_12860928 Bus1=25430-10837987.1 Bus2=25430-10833010.1 LineCode=CND_M10_89_1F Length=135.02 Units=m
New Line.25430_12861088 Bus1=25430-10840518.1 Bus2=25430-10830341.1 LineCode=CND_M10_89_1F Length=141.99 Units=m
New Line.25430_12861089 Bus1=25430-10840519.1 Bus2=25430-10840518.1 LineCode=CND_M10_89_1F Length=100.75 Units=m
New Line.25430_12861090 Bus1=25430-10840520.1 Bus2=25430-10840519.1 LineCode=CND_M10_89_1F Length=116.72 Units=m
New Line.25430_12861094 Bus1=25430-10840411.1 Bus2=25430-10835570.1 LineCode=CND_M10_89_1F Length=135.50 Units=m
New Line.25430_12861098 Bus1=25430-10825245.1 Bus2=25430-10825915.1 LineCode=CND_M10_89_1F Length=67.61 Units=m
New Line.25430_12861099 Bus1=25430-10835562.1 Bus2=25430-10825245.1 LineCode=CND_M10_89_1F Length=151.74 Units=m
New Line.25430_12861101 Bus1=25430-10842930.1 Bus2=25430-10842882.1 LineCode=CND_M10_89_1F Length=100.98 Units=m
New Line.25430_12861104 Bus1=25430-10842932.1 Bus2=25430-10837877.1 LineCode=CND_M10_89_1F Length=112.45 Units=m
New Line.25430_12861106 Bus1=25430-10830338.1 Bus2=25430-10837878.1 LineCode=CND_M10_89_1F Length=151.17 Units=m
New Line.25430_12861107 Bus1=25430-10837876.1 Bus2=25430-10835563.1 LineCode=CND_M10_89_1F Length=112.72 Units=m
New Line.25430_12861110 Bus1=25430-10835565.1 Bus2=25430-10837879.1 LineCode=CND_M10_89_1F Length=156.64 Units=m
New Line.25430_12861114 Bus1=25430-10827927.1 Bus2=25430-10837876.1 LineCode=CND_M10_89_1F Length=159.72 Units=m
New Line.25430_12861115 Bus1=25430-10842933.1 Bus2=25430-10830340.1 LineCode=CND_M10_89_1F Length=148.38 Units=m
New Line.25430_12861116 Bus1=25430-10830340.1 Bus2=25430-10842935.1 LineCode=CND_M10_89_1F Length=120.00 Units=m
New Line.25430_12861117 Bus1=25430-10842935.1 Bus2=25430-10842934.1 LineCode=CND_M10_89_1F Length=152.26 Units=m
New Line.25430_12861119 Bus1=25430-10835567.1 Bus2=25430-10840517.1 LineCode=CND_M10_89_1F Length=139.16 Units=m
New Line.25430_12861122 Bus1=25430-10842939.1 Bus2=25430-10837881.1 LineCode=CND_M10_89_1F Length=77.88 Units=m
New Line.25430_12861123 Bus1=25430-10837881.1 Bus2=25430-10835568.1 LineCode=CND_M10_89_1F Length=132.75 Units=m
New Line.25430_12861124 Bus1=25430-10835568.1 Bus2=25430-10842936.1 LineCode=CND_M10_89_1F Length=122.86 Units=m
New Line.25430_12861125 Bus1=25430-10840522.2 Bus2=25430-10825267.2 LineCode=CND_M10_89_1F Length=141.63 Units=m
New Line.25430_12861126 Bus1=25430-10827946.2 Bus2=25430-10840522.2 LineCode=CND_M10_89_1F Length=132.38 Units=m
New Line.25430_12861127 Bus1=25430-10838021.2 Bus2=25430-10827946.2 LineCode=CND_M10_89_1F Length=133.58 Units=m
New Line.25430_12860994 Bus1=25430-10830412.1 Bus2=25430-10837899.1 LineCode=CND_M10_89_1F Length=142.44 Units=m
New Line.25430_12860997 Bus1=25430-10832895.1 Bus2=25430-10825354.1 LineCode=CND_M10_89_1F Length=138.52 Units=m
New Line.25430_12861002 Bus1=25430-10842961.1 Bus2=25430-10830362.1 LineCode=CND_M10_89_1F Length=90.10 Units=m
New Line.25430_12861003 Bus1=25430-10830362.1 Bus2=25430-10825353.1 LineCode=CND_M10_89_1F Length=117.50 Units=m
New Line.25430_12861005 Bus1=25430-10827781.1 Bus2=25430-10832893.1 LineCode=CND_M10_89_1F Length=149.51 Units=m
New Line.25430_12861006 Bus1=25430-10832893.1 Bus2=25430-10837897.1 LineCode=CND_M10_89_1F Length=92.92 Units=m
New Line.25430_12861007 Bus1=25430-10837897.1 Bus2=25430-10840405.1 LineCode=CND_M10_89_1F Length=51.61 Units=m
New Line.25430_12861008 Bus1=25430-10840405.1 Bus2=25430-10838572.1 LineCode=CND_M10_89_1F Length=51.61 Units=m
New Line.25430_12861015 Bus1=25430-10835578.1 Bus2=25430-10832898.1 LineCode=CND_M10_89_1F Length=128.93 Units=m
New Line.25430_12861016 Bus1=25430-10832898.1 Bus2=25430-10830418.1 LineCode=CND_M10_89_1F Length=95.73 Units=m
New Line.25430_12861017 Bus1=25430-10830418.1 Bus2=25430-10830417.1 LineCode=CND_M10_89_1F Length=122.99 Units=m
New Line.25430_12861020 Bus1=25430-10835577.1 Bus2=25430-10840431.1 LineCode=CND_M10_89_1F Length=120.55 Units=m
New Line.25430_12861021 Bus1=25430-10840431.1 Bus2=25430-10837989.1 LineCode=CND_M10_89_1F Length=158.19 Units=m
New Line.25430_12861022 Bus1=25430-10837989.1 Bus2=25430-10830361.1 LineCode=CND_M10_89_1F Length=100.02 Units=m
New Line.25430_12861024 Bus1=25430-10830360.1 Bus2=25430-10840421.1 LineCode=CND_M10_89_1F Length=81.16 Units=m
New Line.25430_12861025 Bus1=25430-10840421.1 Bus2=25430-10843686.1 LineCode=CND_M10_89_1F Length=69.78 Units=m
New Line.25430_12861148 Bus1=25430-10832876.1 Bus2=25430-10835410.1 LineCode=CND_M10_89_1F Length=132.75 Units=m
New Line.25430_12861149 Bus1=25430-10835410.1 Bus2=25430-10832875.1 LineCode=CND_M10_89_1F Length=143.70 Units=m
New Line.25430_12861150 Bus1=25430-10832875.1 Bus2=25430-10842939.1 LineCode=CND_M10_89_1F Length=161.98 Units=m
New Line.25430_12861151 Bus1=25430-10827944.2 Bus2=25430-10843069.2 LineCode=CND_M10_89_1F Length=136.72 Units=m
New Line.25430_12861152 Bus1=25430-10830431.2 Bus2=25430-10827944.2 LineCode=CND_M10_89_1F Length=67.19 Units=m
New Line.25430_12861155 Bus1=25430-10838010.2 Bus2=25430-10838009.2 LineCode=CND_M10_89_1F Length=93.59 Units=m
New Line.25430_12861162 Bus1=25430-10835591.2 Bus2=25430-10830432.2 LineCode=CND_M10_89_1F Length=90.49 Units=m
New Line.25430_12861163 Bus1=25430-10835592.2 Bus2=25430-10827945.2 LineCode=CND_M10_89_1F Length=90.06 Units=m
New Line.25430_12861164 Bus1=25430-10827945.2 Bus2=25430-10835591.2 LineCode=CND_M10_89_1F Length=103.37 Units=m
New Line.25430_12861167 Bus1=25430-10825266.2 Bus2=25430-10840521.2 LineCode=CND_M10_89_1F Length=62.08 Units=m
New Line.25430_12861169 Bus1=25430-10835604.2 Bus2=25430-10828009.2 LineCode=CND_M10_89_1F Length=129.71 Units=m
New Line.25430_12861170 Bus1=25430-10840446.2 Bus2=25430-10835604.2 LineCode=CND_M10_89_1F Length=138.58 Units=m
New Line.25430_12861171 Bus1=25430-10840446c.2 Bus2=25430-10843682.2 LineCode=CND_M10_89_1F Length=126.92 Units=m
New Line.25430_12861172 Bus1=25430-10838019.2 Bus2=25430-10840446.2 LineCode=CND_M10_89_1F Length=158.44 Units=m
New Line.25430_12861178 Bus1=25430-10825258.2 Bus2=25430-10835560.2 LineCode=CND_M10_89_1F Length=96.98 Units=m
New Line.25430_12861179 Bus1=25430-10835560.2 Bus2=25430-10837874.2 LineCode=CND_M10_89_1F Length=129.48 Units=m
New Line.25430_12861182 Bus1=25430-10840447.2 Bus2=25430-10825260.2 LineCode=CND_M10_89_1F Length=129.99 Units=m
New Line.25430_12861184 Bus1=25430-10825261.2 Bus2=25430-10830429.2 LineCode=CND_M10_89_1F Length=129.51 Units=m
New Line.25430_12861245 Bus1=25430-10830577.2 Bus2=25430-10828008.2 LineCode=CND_M10_89_1F Length=56.75 Units=m
New Line.25430_12861251 Bus1=25430-10835468.2 Bus2=25430-10842984.2 LineCode=CND_M10_89_1F Length=70.58 Units=m
New Line.25430_12861252 Bus1=25430-10842984.2 Bus2=25430-10840469.2 LineCode=CND_M10_89_1F Length=119.70 Units=m
New Line.25430_12861253 Bus1=25430-10842984c.2 Bus2=25430-10831056.2 LineCode=CND_M10_89_1F Length=127.23 Units=m
New Line.25430_12861255 Bus1=25430-10840470.2 Bus2=25430-10833052.2 LineCode=CND_M10_89_1F Length=79.51 Units=m
New Line.25430_12861257 Bus1=25430-10827967.2 Bus2=25430-10830451.2 LineCode=CND_M10_89_1F Length=102.95 Units=m
New Line.25430_12861258 Bus1=25430-10827968.2 Bus2=25430-10827967.2 LineCode=CND_M10_89_1F Length=122.60 Units=m
New Line.25430_12861128 Bus1=25430-10838022.2 Bus2=25430-10838021.2 LineCode=CND_M10_89_1F Length=137.15 Units=m
New Line.25430_12861134 Bus1=25430-10825268.2 Bus2=25430-10832915.2 LineCode=CND_M10_89_1F Length=88.57 Units=m
New Line.25430_12861137 Bus1=25430-10835433.2 Bus2=25430-10827947.2 LineCode=CND_M10_89_1F Length=80.86 Units=m
New Line.25430_12861139 Bus1=25430-10828962.2 Bus2=25430-10840445.2 LineCode=CND_M10_89_1F Length=74.65 Units=m
New Line.25430_12861141 Bus1=25430-10832953.2 Bus2=25430-10843012.2 LineCode=CND_M10_89_1F Length=85.27 Units=m
New Line.25430_12861146 Bus1=25430-10828009.2 Bus2=25430-10840560.2 LineCode=CND_M10_89_1F Length=129.87 Units=m
New Line.25430_12861147 Bus1=25430-10842936.1 Bus2=25430-10842933.1 LineCode=CND_M10_89_1F Length=80.52 Units=m
New Line.25430_12861187 Bus1=25430-10843067.2 Bus2=25430-10843066.2 LineCode=CND_M10_89_1F Length=99.00 Units=m
New Line.25430_12861191 Bus1=25430-10840449.2 Bus2=25430-10830430.2 LineCode=CND_M10_89_1F Length=117.03 Units=m
New Line.25430_12861192 Bus1=25430-10840450.2 Bus2=25430-10840449.2 LineCode=CND_M10_89_1F Length=126.08 Units=m
New Line.25430_12861193 Bus1=25430-10825264.2 Bus2=25430-10840450.2 LineCode=CND_M10_89_1F Length=113.35 Units=m
New Line.25430_12861194 Bus1=25430-10840451.2 Bus2=25430-10825264.2 LineCode=CND_M10_89_1F Length=137.16 Units=m
New Line.25430_12861062 Bus1=25430-10842953.1 Bus2=25430-10842952.1 LineCode=CND_M10_89_1F Length=98.76 Units=m
New Line.25430_12861063 Bus1=25430-10842952.1 Bus2=25430-10842951.1 LineCode=CND_M10_89_1F Length=152.46 Units=m
New Line.25430_12861064 Bus1=25430-10842951.1 Bus2=25430-10827774.1 LineCode=CND_M10_89_1F Length=108.27 Units=m
New Line.25430_12861065 Bus1=25430-10827774.1 Bus2=25430-10842949.1 LineCode=CND_M10_89_1F Length=127.49 Units=m
New Line.25430_12861073 Bus1=25430-10840419.1 Bus2=25430-10840418.1 LineCode=CND_M10_89_1F Length=132.34 Units=m
New Line.25430_12861074 Bus1=25430-10840418.1 Bus2=25430-10840417.1 LineCode=CND_M10_89_1F Length=120.84 Units=m
...
